<?xml version="1.0" encoding="UTF-8"?>

<!-- generated on 2023-09-30 10:29:34 by Eclipse SUMO sumo Version 1.18.0
-->

<configuration xmlns:xsi="http://www.w3.org/2001/XMLSchema-instance" xsi:noNamespaceSchemaLocation="http://sumo.dlr.de/xsd/sumoConfiguration.xsd">

    <input>
        <net-file value="osm.net.xml.gz"/>
        <route-files value="vehicles.rou.xml"/>
    </input>

</configuration>
